<configuration>
    <input>
        <net-file value="two_inter.net.xml"/>
        <route-files value="two_inter.rou.xml"/>
        <gui-settings-file value="hello.settings.xml"/>
    </input>
    <time>
        <begin value="0"/>
        <end value="10000"/>
    </time>
</configuration>